etc/on-the-fly/01 14-Bus/14Bus.m
% Case saved by PowerWorld Simulator, version 23, build date May 7, 2024
% Case Information Header = 1 lines
%  08/19/93 UW ARCHIVE           100.0  1962 W IEEE 14 Bus Test Case
function mpc = 14Bus
mpc.version = '2';
mpc.baseMVA =  100.00;

%% bus data 
mpc.bus = [
1	3	0.00	0.00	0.00	0.00	1	1.0599999	0.000000	138.00	1	1.100	0.900
2	2	21.70	12.70	0.00	0.00	1	1.0450000	-4.982553	138.00	1	1.100	0.900
3	2	94.20	19.00	0.00	0.00	1	1.0100000	-12.725027	138.00	1	1.100	0.900
4	1	47.80	-3.90	0.00	0.00	1	1.0176716	-10.312829	138.00	1	1.100	0.900
5	1	7.60	1.60	0.00	0.00	1	1.0195146	-8.773799	138.00	1	1.100	0.900
6	2	11.20	7.50	0.00	0.00	1	1.0700001	-14.220869	138.00	1	1.100	0.900
7	1	0.00	0.00	0.00	0.00	1	1.0615202	-13.359558	138.00	1	1.100	0.900
8	2	0.00	0.00	0.00	0.00	1	1.0900000	-13.359571	138.00	1	1.100	0.900
9	1	29.50	16.60	0.00	19.00	1	1.0559328	-14.938457	138.00	1	1.100	0.900
10	1	9.00	5.80	0.00	0.00	1	1.0509856	-15.097221	138.00	1	1.100	0.900
11	1	3.50	1.80	0.00	0.00	1	1.0569069	-14.790552	138.00	1	1.100	0.900
12	1	6.10	1.60	0.00	0.00	1	1.0551891	-15.075512	138.00	1	1.100	0.900
13	1	13.50	5.80	0.00	0.00	1	1.0503827	-15.156196	138.00	1	1.100	0.900
14	1	14.90	5.00	0.00	0.00	1	1.0355306	-16.033565	138.00	1	1.100	0.900
];

%% generator data 
mpc.gen = [
1	232.39	-16.55	0.00	0.00	1.0600	615.00	1	10000.00	-10000.00	0.00	0.00	0.00	0.00	0.00	0.00	0	0	0	0	0.0000
2	40.00	43.56	50.00	-40.00	1.0450	60.00	1	40.00	40.00	0.00	0.00	0.00	0.00	0.00	0.00	0	0	0	0	0.0000
3	0.00	25.07	40.00	0.00	1.0100	60.00	1	0.00	0.00	0.00	0.00	0.00	0.00	0.00	0.00	0	0	0	0	0.0000
6	0.00	12.73	24.00	-6.00	1.0700	25.00	1	0.00	0.00	0.00	0.00	0.00	0.00	0.00	0.00	0	0	0	0	0.0000
8	0.00	17.62	24.00	-6.00	1.0900	25.00	1	0.00	0.00	0.00	0.00	0.00	0.00	0.00	0.00	0	0	0	0	0.0000
];

%% generator cost data
mpc.gencost = [
2	0	0	4	0	0	1	0
2	0	0	4	0	0	1	0
2	0	0	4	0	0	1	0
2	0	0	4	0	0	1	0
2	0	0	4	0	0	1	0
];

%% branch data
mpc.branch = [
1	2	0.019380	0.059170	0.05280	0.00	0.00	0.00	0.00000	0.000	1	0.00	0.00	156.88	-20.40	-152.58	27.68
1	5	0.054030	0.223040	0.04920	0.00	0.00	0.00	0.00000	0.000	1	0.00	0.00	75.51	3.85	-72.75	2.23
2	3	0.046990	0.197970	0.04380	0.00	0.00	0.00	0.00000	0.000	1	0.00	0.00	73.24	3.56	-70.91	1.60
2	4	0.058110	0.176320	0.03400	0.00	0.00	0.00	0.00000	0.000	1	0.00	0.00	56.13	-1.55	-54.45	3.02
2	5	0.056950	0.173880	0.03460	0.00	0.00	0.00	0.00000	0.000	1	0.00	0.00	41.52	1.17	-40.61	-2.10
3	4	0.067010	0.171030	0.01280	0.00	0.00	0.00	0.00000	0.000	1	0.00	0.00	-23.29	4.47	23.66	-4.84
4	5	0.013350	0.042110	0.00000	0.00	0.00	0.00	0.00000	0.000	1	0.00	0.00	-61.16	15.82	61.67	-14.20
4	7	0.000000	0.209120	0.00000	0.00	0.00	0.00	0.97800	0.000	1	0.00	0.00	28.07	-9.68	-28.07	11.38
4	9	0.000000	0.556180	0.00000	0.00	0.00	0.00	0.96900	0.000	1	0.00	0.00	16.08	-0.43	-16.08	1.73
5	6	0.000000	0.252020	0.00000	0.00	0.00	0.00	0.93200	0.000	1	0.00	0.00	44.09	12.47	-44.09	-8.05
6	11	0.094980	0.198900	0.00000	0.00	0.00	0.00	0.00000	0.000	1	0.00	0.00	7.35	3.56	-7.30	-3.44
6	12	0.122910	0.255810	0.00000	0.00	0.00	0.00	0.00000	0.000	1	0.00	0.00	7.79	2.50	-7.71	-2.35
6	13	0.066150	0.130270	0.00000	0.00	0.00	0.00	0.00000	0.000	1	0.00	0.00	17.75	7.22	-17.54	-6.80
7	8	0.000000	0.176150	0.00000	0.00	0.00	0.00	0.00000	0.000	1	0.00	0.00	0.00	-17.16	-0.00	17.62
7	9	0.000000	0.110010	0.00000	0.00	0.00	0.00	0.00000	0.000	1	0.00	0.00	28.07	5.78	-28.07	-4.98
9	10	0.031810	0.084500	0.00000	0.00	0.00	0.00	0.00000	0.000	1	0.00	0.00	5.23	4.22	-5.21	-4.19
9	14	0.127110	0.270380	0.00000	0.00	0.00	0.00	0.00000	0.000	1	0.00	0.00	9.43	3.61	-9.31	-3.36
10	11	0.082050	0.192070	0.00000	0.00	0.00	0.00	0.00000	0.000	1	0.00	0.00	-3.79	-1.61	3.80	1.64
12	13	0.220920	0.199880	0.00000	0.00	0.00	0.00	0.00000	0.000	1	0.00	0.00	1.61	0.75	-1.61	-0.75
13	14	0.170930	0.348020	0.00000	0.00	0.00	0.00	0.00000	0.000	1	0.00	0.00	5.64	1.75	-5.59	-1.64
];

%% bus names
mpc.bus_name = {
'Bus 1';
'Bus 2';
'Bus 3';
'Bus 4';
'Bus 5';
'Bus 6';
'Bus 7';
'Bus 8';
'Bus 9';
'Bus 10';
'Bus 11';
'Bus 12';
'Bus 13';
'Bus 14';
};

%% Generator Unit Types
mpc.gentype = {
'UN';
'UN';
'UN';
'UN';
'UN';
};

%% Generator Fuel Types
mpc.genfuel = {
'unknown';
'unknown';
'unknown';
'unknown';
'unknown';
};
